$# LS-DYNA Keyword file created by WB-LSDYNA 2022 R2
*KEYWORD
*PARAMETER_DUPLICATION
4
*DATABASE_FORMAT
$    iform   ibinary                                                      unused
         0         0                                                            
*CONTROL_TERMINATION
$   endtim    endcyc     dtmin    endeng    endmas                        unused
     7E-05  10000000     0.001         0    100000                              
*CONTROL_TIMESTEP
$   dtinit    tssfac      isdo    tslimt     dt2ms      lctm     erode     ms1st
         0       0.9         0         0         0         0         1         0
$   dt2msf   dt2mslc     imscl                                            unused
         0         0         0                                                  
*CONTROL_CONTACT
$   slsfac    rwnpal    islchk    shlthk    penopt    thkchg     orien    enmass
         0         0         1         1         1         0         2         0
$   usrstr   usrfric     nsbcs    interm     xpene     ssthk      ecdt   tiedprj
         0         0         0         0         0         0         0         0
$    sfric     dfric       edc       vfc        th     th_sf    pen_sf    unused
         0         0         0         0         0         0         0          
$   ignore    frceng   skiprwg    outseg   spotstp   spotdel   spothin   unused1
         2         1         0         1         0         1       0.5          
$     isym    nserod    rwgaps    rwgdth     rwksf      icov    swradf    ithoff
         0         0         0         0         0         0         0         0
$   shledg    pstiff    ithcnt    tdcnof     ftall                       unused2
         1         0         0         0         1                              
*CONTROL_ENERGY
$     hgen      rwen    slnten     rylen                                  unused
         2         2         2         2                                        
*CONTROL_ACCURACY
$      osu       inn    pidosu                                            unused
         0         1         0                                                 0
*CONTROL_BULK_VISCOSITY
$       q1        q2      type                                            unused
       1.5      0.06        -2                                                  
*CONTROL_SOLID
$    esort    fmatrx   niptets    swlocl                                  unused
         1         0         0         0                                        
$    pm1     pm2     pm3     pm4     pm5     pm6     pm7     pm8     pm9    pm10
       0       0       0       0       0       0       0       0       0       0
*CONTROL_SHELL
$   wrpang     esort     irnxx    istupd    theory       bwc     miter      proj
        20         1        -1         4         2         1         1         1
$  rotascl    intgrd    lamsht    cstyp6    tshell    nfail1    nfail4   psnfail
         0         0         0         0         0         1         1         0
$   pstupd    irquad     cntco                                            unused
         0         0         2                                                  
*CONTROL_OUTPUT
$    npopt    neecho    nrefup    iaccop     opifs    ipnint    ikedit    iflush
         1         0         0         0         0         0         0         0
$    iprtf    ierode     tet10    msgmax    ipcurv                        unused
         0         0         0         0         0                              
*CONTROL_PARALLEL
$     ncpu    numrhs    consti      para                                  unused
         0         0         1         0                                        
*CONTROL_SOLUTION
$     soln       nlq     isnan     lcint                                  unused
         0         0         0         0                                        
*CONTROL_HOURGLASS
$      ihq        qh                                                     unused1
         5       0.1                                                            
*SECTION_SOLID
$       ID    elform       aet                                           unused1
         1         1         0                                                  
*MAT_PLASTIC_KINEMATIC
$       ID        ro         E        pr      sigy      Etan      beta   unused1
         1  2.77E-09     71000      0.33       280       500         1          
$      src       srp        fs        vp                                 unused2
         0         0         0         0                                        
$Material Id = {1,{62DAB5CC-049B-4687-96BB-A38AF8C5CAE8}, Aluminum Alloy NL}
*PART
$                                                             partname   unused1
                                                              Cylinder          
$       ID     secid       mid     eosid      hgid      grav     adopt      tmid
         1         1         1         0         0         0         0         0
*SECTION_SOLID
$       ID    elform       aet                                           unused1
         2         1         0                                                  
*MAT_PLASTIC_KINEMATIC
$       ID        ro         E        pr      sigy      Etan      beta   unused1
         2  7.85E-09    200000       0.3       250      1450         1          
$      src       srp        fs        vp                                 unused2
         0         0         0         0                                        
$Material Id = {2,{76CD0068-A138-43D0-A0AD-D47E442FBFD1}, Structural Steel NL}
*PART
$                                                             partname   unused1
                                                                 Plate          
$       ID     secid       mid     eosid      hgid      grav     adopt      tmid
         2         2         2         0         0         0         0         0
*NODE
       1     17.14285714     17.14285714     -2.50000000                        
       2     17.14285714     17.14285714     -5.00000000                        
       3     17.14285714     17.14285714     -7.50000000                        
       4     14.28571429     17.14285714     -2.50000000                        
       5     14.28571429     17.14285714     -5.00000000                        
       6     14.28571429     17.14285714     -7.50000000                        
       7     11.42857143     17.14285714     -2.50000000                        
       8     11.42857143     17.14285714     -5.00000000                        
       9     11.42857143     17.14285714     -7.50000000                        
      10      8.57142857     17.14285714     -2.50000000                        
      11      8.57142857     17.14285714     -5.00000000                        
      12      8.57142857     17.14285714     -7.50000000                        
      13      5.71428571     17.14285714     -2.50000000                        
      14      5.71428571     17.14285714     -5.00000000                        
      15      5.71428571     17.14285714     -7.50000000                        
      16      2.85714286     17.14285714     -2.50000000                        
      17      2.85714286     17.14285714     -5.00000000                        
      18      2.85714286     17.14285714     -7.50000000                        
      19      0.00000000     17.14285714     -2.50000000                        
      20      0.00000000     17.14285714     -5.00000000                        
$ ... 2293 like lines cut
*ELEMENT_SOLID
     785       1
    1126    1246    1846    1196    1972    1960    1900    1965
     786       1
    1126    1196    1846    1246    1127    1197    1847    1247
     787       1
    1127    1197    1847    1247    1128    1198    1848    1248
     788       1
    1128    1198    1848    1248    1129    1199    1849    1249
     789       1
    1129    1199    1849    1249    1130    1200    1850    1250
     790       1
    1130    1200    1850    1250    1131    1201    1851    1251
     791       1
    1131    1201    1851    1251    1132    1202    1852    1252
     792       1
    1132    1202    1852    1252    1133    1203    1853    1253
     793       1
    1133    1203    1853    1253    1134    1204    1854    1254
     794       1
    1134    1204    1854    1254    1135    1205    1855    1255
$ ... 3528 like lines cut
*DEFINE_COORDINATE_SYSTEM
$       ID        xO        yO        zO        xL        yL        zL   unused1
        25         0         0         0         1         0         0          
$       xP        yP        zP                                           unused2
         0         1         0                                                  
*INITIAL_VELOCITY_GENERATION
$      sid      styp     omega        vx        vy        vz     ivatn      icid
         1         2         0         0         0   -300000         0        25
$       xc        yc        zc        nx        ny        nz     phase   unused2
         0         0         0         0         0         0         0          
*CONTACT_AUTOMATIC_SINGLE_SURFACE_ID
$       ID                                                               heading
        34                                                      Body Interaction
$     ssid      msid     sstyp     mstyp    sboxid    mboxid       spr       mpr
         0         0         5         0         0         0         0         0
$       fs        fd        dc        vc       vdc    penchk        bt        dt
         0         0         0         0        10         0         0         0
$      sfs       sfm       sst       mst      sfst      sfmt       fsf       vsf
         0         0         0         0         0         0         0         0
$     soft   softscl    lcidab    maxpar     sbopt     depth     bsort    frcfrq
         2         0         0         0         3         5         0         0
$   penmax    tkhopt    shlthk     snlog      isym     i2d3d    sldthk    sldstf
         0         0         0         0         0         0         0         0
*SET_NODE_LIST
         1
       677       678       679       680       681       682       683       684
       685       686       687       688       689       690       691       692
       693       694       695       696       697       698       699       700
       701       702       703       704       705       706       707       708
       709       710       711       712       713       714       715       716
       717       718       719       720       721       722       723       724
       725       726       727       728       729       730       731       732
       733       734       735       736       737       738       739       740
       741       742       743       744       745       746       747       748
       749       750       751       752       753       754       755       756
       757       758       759       760       761       762       763       764
       765       766       767       768       769       770       771       772
       773       774       775       776       777       778       779       780
       781       782       783       784       785       786       787       788
       789       790       791       792       793       794       795       796
       797       798       799       800       801       802       803       804
       805       806       807       808       809       810       811       812
       813       814       815       816       817       818       819       820
       821       822       823       824       825       826       827       828
$ ... 10 like lines cut
*BOUNDARY_SPC_SET
$     nsid       cid      dofx      dofy      dofz     dofrx     dofry     dofrz
         1         0         1         1         1         1         1         1
*DATABASE_NODOUT
$       dt    binary      lcur     ioopt     dthff     binhf             unused1
     7E-08         3         0         0         0         0                   0
*DATABASE_BNDOUT
$       dt    binary      lcur     ioopt     dthff     binhf             unused1
     7E-08         3         0         0         0         0                   0
*DATABASE_DEFGEO
$       dt    binary      lcur     ioopt     dthff     binhf             unused1
     7E-08         3         0         0         0         0                   0
*DATABASE_DEFORC
$       dt    binary      lcur     ioopt     dthff     binhf             unused1
     7E-08         3         0         0         0         0                   0
*DATABASE_ELOUT
$       dt    binary      lcur     ioopt     dthff     binhf             unused1
     7E-08         3         0         0         0         0                   0
*DATABASE_GCEOUT
$       dt    binary      lcur     ioopt     dthff     binhf             unused1
     7E-08         3         0         0         0         0                   0
*DATABASE_GLSTAT
$       dt    binary      lcur     ioopt     dthff     binhf             unused1
     7E-08         3         0         0         0         0                   0
*DATABASE_JNTFORC
$       dt    binary      lcur     ioopt     dthff     binhf             unused1
     7E-08         3         0         0         0         0                   0
*DATABASE_MATSUM
$       dt    binary      lcur     ioopt     dthff     binhf             unused1
     7E-08         3         0         0         0         0                   0
*DATABASE_SWFORC
$       dt    binary      lcur     ioopt     dthff     binhf             unused1
     7E-08         3         0         0         0         0                   0
*DATABASE_SPCFORC
$       dt    binary      lcur     ioopt     dthff     binhf             unused1
     7E-08         3         0         0         0         0                   0
*DATABASE_RCFORC
$       dt    binary      lcur     ioopt     dthff     binhf             unused1
     7E-08         3         0         0         0         0                   0
*DATABASE_NCFORC
$       dt    binary      lcur     ioopt     dthff     binhf             unused1
     7E-08         3         0         0         0         0                   0
*DATABASE_EXTENT_BINARY
$    neiph     neips    maxint    strflg    sigflg    epsflg    rltflg    engflg
         0         0         0        10         1         1         0         0
$   cmpflg    ieverp    beamip     dcomp      shge     stssz    n3thdt   ialemat
         0         0         0         0         0         0         0         0
$  nintsld   pkp_sen      sclp     hydro     msscl     therm    intout    nodout
         0         0         0         0         2         0                    
*DATABASE_BINARY_D3PLOT
$       dt      lcdt      beam     npltc    psetid                       unused1
     7E-07         0         0         0         0                              
$    ioopt                                                               unused2
         0                                                                      
*DATABASE_BINARY_INTFOR
$       dt      lcdt      beam     npltc    psetid                        unused
     7E-07         0         0         0         0                              
*DATABASE_BINARY_D3PROP
$    ifile     imatl     iwall                                           unused2
         2         1         0                                                  
*END
