/batch
/config,noeldb,1     ! force off writing results to database
*get,_wallstrt,active,,time,wall
! ANSYS input file written by Workbench version 2021 R2
! File used for geometry attach: C:\Users\fnegri\AppData\Local\Temp\WB_fnegri_30380_2\wbnew_files\dp0\SYS\DM\SYS.scdoc
/title,wbnew--Static Structural (A5)
! ****** Begin Custom Load Command Snippet ******
/COM, ACT Extensions:
/COM,     LSDYNA, 2021.1
/COM,     5f463412-bd3e-484b-87e7-cbc0a665e474, wbex
/COM,
! ****** End   Custom Load Command Snippet ******
*DIM,_wb_ProjectScratch_dir,string,248
_wb_ProjectScratch_dir(1) = 'C:\Users\fnegri\AppData\Local\Temp\WB_fnegri_30380_2\_ProjectScratch\Scr1EF9\'
*DIM,_wb_SolverFiles_dir,string,248
_wb_SolverFiles_dir(1) = 'C:\Users\fnegri\AppData\Local\Temp\WB_fnegri_30380_2\wbnew_files\dp0\SYS\MECH\'
*DIM,_wb_userfiles_dir,string,248
_wb_userfiles_dir(1) = 'C:\Users\fnegri\AppData\Local\Temp\WB_fnegri_30380_2\wbnew_files\user_files\'
/com,--- Data in consistent NMM units. See Solving Units in the help system for more information.
/units,MPA
/nopr
/wb,file,start              !  signify a WB generated input file
/prep7
! Turn off shape checking because checks already performed inside WB mesher.
! See help system for more information.
SHPP,OFF,,NOWARN
/nolist
etcon,set             ! allow ANSYS to choose best KEYOP's for 180x elements, resets any applicable keyopt to MAPDL defaults
/com,*********** Nodes for the whole assembly ***********
nblock,3,,9109
(1i9,3e20.9e3)
        1     8.333333333E+00     8.333333333E+00     1.666666667E+00
        2     8.333333333E+00     8.333333333E+00     3.333333333E+00
        3     8.333333333E+00     8.333333333E+00     5.000000000E+00
        4     8.333333333E+00     8.333333333E+00     6.666666667E+00
        5     8.333333333E+00     8.333333333E+00     8.333333333E+00
        6     8.333333333E+00     8.333333333E+00     1.000000000E+01
        7     8.333333333E+00     8.333333333E+00     1.166666667E+01
        8     8.333333333E+00     8.333333333E+00     1.333333333E+01
        9     8.333333333E+00     8.333333333E+00     1.500000000E+01
       10     8.333333333E+00     8.333333333E+00     1.666666667E+01
       11     8.333333333E+00     8.333333333E+00     1.833333333E+01
       12     8.333333333E+00     6.666666667E+00     1.666666667E+00
       13     8.333333333E+00     6.666666667E+00     3.333333333E+00
       14     8.333333333E+00     6.666666667E+00     5.000000000E+00
       15     8.333333333E+00     6.666666667E+00     6.666666667E+00
       16     8.333333333E+00     6.666666667E+00     8.333333333E+00
       17     8.333333333E+00     6.666666667E+00     1.000000000E+01
       18     8.333333333E+00     6.666666667E+00     1.166666667E+01
       19     8.333333333E+00     6.666666667E+00     1.333333333E+01
       20     8.333333333E+00     6.666666667E+00     1.500000000E+01
! ... 8262 like lines cut
/wb,elem,start            !  set before creation of elements
/com,*********** Elements for Body 1 "SYS\Solid" ***********
et,1,186
keyo,1,2,1          ! set full integration on SOLID186
eblock,19,solid,,1728
(19i9)
        1        1        1        1        0        0        0        0       20        0        1        1     2032     2064     2066     1452     2053     2065     2187
     2202     7987     8039     2203     6816     8017     8040     6817     2201     7986     8038     8043
        1        1        1        1        0        0        0        0       20        0        2        1     2066     2064     2032        2     2077     2063     2021
     2203     8039     7987     2202     2208     8037     7965     2207     2198     8042     8036     7964
        1        1        1        1        0        0        0        0       20        0        3        2     2077     2063     2021        3     2088     2062     2010
     2208     8037     7965     2207     2213     8035     7943     2212     2204     8074     8034     7942
        1        1        1        1        0        0        0        0       20        0        4        3     2088     2062     2010        4     2099     2061     1999
     2213     8035     7943     2212     2218     8033     7921     2217     2209     8095     8032     7920
        1        1        1        1        0        0        0        0       20        0        5        4     2099     2061     1999        5     2110     2060     1988
     2218     8033     7921     2217     2223     8031     7899     2222     2214     8116     8030     7898
        1        1        1        1        0        0        0        0       20        0        6        5     2110     2060     1988        6     2121     2059     1977
     2223     8031     7899     2222     2228     8029     7877     2227     2219     8137     8028     7876
        1        1        1        1        0        0        0        0       20        0        7        6     2121     2059     1977        7     2132     2058     1966
     2228     8029     7877     2227     2233     8027     7855     2232     2224     8158     8026     7854
        1        1        1        1        0        0        0        0       20        0        8        7     2132     2058     1966        8     2143     2057     1955
     2233     8027     7855     2232     2238     8025     7833     2237     2229     8179     8024     7832
        1        1        1        1        0        0        0        0       20        0        9        8     2143     2057     1955        9     2154     2056     1944
     2238     8025     7833     2237     2243     8023     7811     2242     2234     8200     8022     7810
        1        1        1        1        0        0        0        0       20        0       10        9     2154     2056     1944       10     2165     2055     1933
     2243     8023     7811     2242     2248     8021     7789     2247     2239     8221     8020     7788
! ... 3437 like lines cut
!Material Id = {9774A86C-F1E0-4C10-9385-995E0FE46193}
/wb,elem,end               !  done creating elements
/com,*********** Send User Defined Coordinate System(s) ***********
csys,0
toffst,273.15,  ! Temperature offset from absolute zero
/com,*********** Set Reference Temperature ***********
tref,22.
/wb,mat,start              !  starting to send materials
/com,*********** Send Materials ***********
Temperature = 'TEMP' ! Temperature
MP,DENS,1,7.85e-09,	! tonne mm^-3
MP,ALPX,1,1.2e-05,	! C^-1
MP,C,1,434000000,	! mm^2 s^-2 C^-1
MP,KXX,1,60.5,	! tonne mm s^-3 C^-1
MP,RSVX,1,0.00017,	! ohm mm
MP,EX,1,200000,	! tonne s^-2 mm^-1
MP,NUXY,1,0.3,
MP,MURX,1,10000,
MP,UVID,1,bcad1be6-85e7-4127-a062-fa4d4342a5f1
MP,UMID,1,59002a79-71c2-428e-906b-55d7dbee100e

/wb,mat,end                !  done sending materials
!************************* Model Summary ********************
!SYS\Solid,	Structural Steel,	matid,	1
!************************* End Model Summary ********************
! get the diagonal of the bounding box. Needed later for other things
*get,_xmin,node,,mnloc,x
*get,_ymin,node,,mnloc,y
*get,_zmin,node,,mnloc,z
*get,_xmax,node,,mxloc,x
*get,_ymax,node,,mxloc,y
*get,_zmax,node,,mxloc,z
_ASMDIAG=(_xmax-_xmin)*(_xmax-_xmin)+(_ymax-_ymin)*(_ymax-_ymin)+(_zmax-_zmin)*(_zmax-_zmin)
_ASMDIAG=SQRT(_ASMDIAG)
/wb,contact,start          !  starting to send contact
/wb,contact,end            !  done creating contacts
/golist
/wb,load,start             !  starting to send loads
CMBLOCK,_CM33_FIXEDSU,NODE,      481
(8i10)
      1597      1598      1599      1600      1601      1602      1603      1604
      1605      1606      1607      1608      1609      1766      1767      1768
      1769      1770      1771      1772      1773      1774      1775      1776
      1777      1778      1779      1780      1781      1782      1783      1784
      1785      1786      1787      1788      1789      1790      1791      1792
      1793      1794      1795      1796      1797      1798      1799      1800
      1801      1802      1803      1804      1805      1806      1807      1808
      1809      1810      1811      1812      1813      1814      1815      1816
      1817      1818      1819      1820      1821      1822      1823      1824
      1825      1826      1827      1828      1829      1830      1831      1832
      1833      1834      1835      1836      1837      1838      1839      1840
      1841      1842      1843      1844      1845      1846      1847      1848
      1849      1850      1851      1852      1853      1854      1855      1856
      1857      1858      1859      1860      1861      1862      1863      1864
      1865      1866      1867      1868      1869      1870      1871      1872
      1873      1874      1875      1876      1877      1878      1879      1880
      1881      1882      1883      1884      1885      1886      1887      1888
      1889      1890      1891      1892      1893      1894      1895      1896
      1897      1898      1899      1900      1901      1902      1903      1904
      1905      1906      1907      1908      1909      1910      1911      1912
! ... 41 like lines cut
/com,*********** Create Displacement Components For Use In Future MSUP or Multistage Analysis ******
CMBLOCK,_CM31_DISP,NODE,      481
(8i10)
      1574      1575      1576      1577      1578      1579      1580      1581
      1582      1583      1584      1585      1621      1754      1755      1756
      1757      1758      1759      1760      1761      1762      1763      1764
      1765      2054      2055      2056      2057      2058      2059      2060
      2061      2062      2063      2064      2065      2066      2067      2068
      2069      2070      2071      2072      2073      2074      2075      2076
      2077      2078      2079      2080      2081      2082      2083      2084
      2085      2086      2087      2088      2089      2090      2091      2092
      2093      2094      2095      2096      2097      2098      2099      2100
      2101      2102      2103      2104      2105      2106      2107      2108
      2109      2110      2111      2112      2113      2114      2115      2116
      2117      2118      2119      2120      2121      2122      2123      2124
      2125      2126      2127      2128      2129      2130      2131      2132
      2133      2134      2135      2136      2137      2138      2139      2140
      2141      2142      2143      2144      2145      2146      2147      2148
      2149      2150      2151      2152      2153      2154      2155      2156
      2157      2158      2159      2160      2161      2162      2163      2164
      2165      2166      2167      2168      2169      2170      2171      2172
      2173      2174      2175      2176      2177      2178      2179      2180
      2181      2182      2183      2184      2185      2186      2187      2188
! ... 41 like lines cut
/com,*********** Fixed Supports ***********
CMBLOCK,_FIXEDSU,NODE,      481
(8i10)
      1597      1598      1599      1600      1601      1602      1603      1604
      1605      1606      1607      1608      1609      1766      1767      1768
      1769      1770      1771      1772      1773      1774      1775      1776
      1777      1778      1779      1780      1781      1782      1783      1784
      1785      1786      1787      1788      1789      1790      1791      1792
      1793      1794      1795      1796      1797      1798      1799      1800
      1801      1802      1803      1804      1805      1806      1807      1808
      1809      1810      1811      1812      1813      1814      1815      1816
      1817      1818      1819      1820      1821      1822      1823      1824
      1825      1826      1827      1828      1829      1830      1831      1832
      1833      1834      1835      1836      1837      1838      1839      1840
      1841      1842      1843      1844      1845      1846      1847      1848
      1849      1850      1851      1852      1853      1854      1855      1856
      1857      1858      1859      1860      1861      1862      1863      1864
      1865      1866      1867      1868      1869      1870      1871      1872
      1873      1874      1875      1876      1877      1878      1879      1880
      1881      1882      1883      1884      1885      1886      1887      1888
      1889      1890      1891      1892      1893      1894      1895      1896
      1897      1898      1899      1900      1901      1902      1903      1904
      1905      1906      1907      1908      1909      1910      1911      1912
! ... 41 like lines cut
cmsel,s,_FIXEDSU
d,all,all
nsel,all
/gst,on,on
fini
*get,_numnode,node,0,count
*get,_numelem,elem,0,count
*get, _MAXELEMNUM, elem, 0, NUM, MAX
*get, _MAXNODENUM, node, 0, NUM, MAX
*get, _MAXELEMTYPE, etyp, 0, NUM, MAX
*get, _MAXREALCONST, real, 0, NUM, MAX
/go
/wb,load,end               !  done creating loads
/com,--- Number of total nodes = %_numnode%
/com,--- Number of contact elements = 0
/com,--- Number of spring elements = 0
/com,--- Number of bearing elements = 0
/com,--- Number of solid elements = 1728
/com,--- Number of condensed parts = 0
/com,--- Number of total elements = %_numelem%
*get,_wallbsol,active,,time,wall
/com,****************************************************************************
/com,*************************    SOLUTION       ********************************
/com,****************************************************************************
/solu
antype,0                   ! static analysis
_thickRatio=  1     ! Ratio of thick parts in the model
eqsl,pcg,1e-8,,,,,,1
cntr,print,1               ! print out contact info and also make no initial contact an error
nldiag,cont,iter           ! print out contact info each equilibrium iteration
rescontrol,linear,last           ! Turn on restart files due to future eigen analysis intent
/com,****************************************************
/com,******************* SOLVE FOR LS 1 OF 1 ****************
/com,*** Set Displacements ***
CMBLOCK,_CM31UX_XP,NODE,      481
(8i10)
      1574      1575      1576      1577      1578      1579      1580      1581
      1582      1583      1584      1585      1621      1754      1755      1756
      1757      1758      1759      1760      1761      1762      1763      1764
      1765      2054      2055      2056      2057      2058      2059      2060
      2061      2062      2063      2064      2065      2066      2067      2068
      2069      2070      2071      2072      2073      2074      2075      2076
      2077      2078      2079      2080      2081      2082      2083      2084
      2085      2086      2087      2088      2089      2090      2091      2092
      2093      2094      2095      2096      2097      2098      2099      2100
      2101      2102      2103      2104      2105      2106      2107      2108
      2109      2110      2111      2112      2113      2114      2115      2116
      2117      2118      2119      2120      2121      2122      2123      2124
      2125      2126      2127      2128      2129      2130      2131      2132
      2133      2134      2135      2136      2137      2138      2139      2140
      2141      2142      2143      2144      2145      2146      2147      2148
      2149      2150      2151      2152      2153      2154      2155      2156
      2157      2158      2159      2160      2161      2162      2163      2164
      2165      2166      2167      2168      2169      2170      2171      2172
      2173      2174      2175      2176      2177      2178      2179      2180
      2181      2182      2183      2184      2185      2186      2187      2188
! ... 41 like lines cut
cmsel,s,_CM31UX_XP
d,all,ux,2.
nsel,all

/com,*** Component For All Non-Zero UX Displacements ***
cmsel,s,_CM31ux_xp
cm,_DISPNONZEROUX,NODE
nsel,all

/nopr
/gopr
nsub,1,1,1
time,1.
outres,erase
outres,all,none
outres,nsol,all,
outres,rsol,all
outres,eangl,all
outres,etmp,all
outres,veng,all
outres,strs,all,
outres,epel,all,
outres,eppl,all,
outres,cont,all,
! *********** WB SOLVE COMMAND ***********
! check interactive state
*get,ANSINTER_,active,,int
*if,ANSINTER_,ne,0,then
/eof
*endif
solve
/com *************** Write FE CONNECTORS ********* 
CEWRITE,file,ce,,INTE
/com,****************************************************
/com,*************** FINISHED SOLVE FOR LS 1 *************
*get,_wallasol,active,,time,wall
/nopr
*get,_numnode,node,0,count
*get,_numelem,elem,0,count
*get, _MAXELEMNUM, elem, 0, NUM, MAX
*get, _MAXNODENUM, node, 0, NUM, MAX,,,INTERNAL
*get, _MAXELEMTYPE, etyp, 0, NUM, MAX
*get, _MAXREALCONST, real, 0, NUM, MAX
/gopr
*get,_PCGITER,active,,solu,cgiter
/post1
xmlo,ENCODING,ISO-8859-1
xmlo,parm
/xml,parm,xml
fini
/gopr
*get,_walldone,active,,time,wall
_preptime=(_wallbsol-_wallstrt)*3600
_solvtime=(_wallasol-_wallbsol)*3600
_posttime=(_walldone-_wallasol)*3600
_totaltim=(_walldone-_wallstrt)*3600
*get,_dlbratio,active,0,solu,dlbr
*get,_combtime,active,0,solu,comb
*get,_ssmode,active,0,solu,ssmm
*get,_ndofs,active,0,solu,ndof
/com,--- Total number of nodes = %_numnode%
/com,--- Total number of elements = %_numelem%
/com,--- Element load balance ratio = %_dlbratio%
/com,--- Time to combine distributed files = %_combtime%
/com,--- Sparse memory mode = %_ssmode%
/com,--- Number of DOF = %_ndofs%
/wb,file,end               ! done with WB generated input
